Version 4
SHEET 1 1060 680
WIRE -112 48 -432 48
WIRE -64 48 -112 48
WIRE 224 48 -64 48
WIRE 272 48 224 48
WIRE 544 48 272 48
WIRE 592 48 544 48
WIRE -112 80 -112 48
WIRE 224 80 224 48
WIRE 544 80 544 48
WIRE -432 112 -432 48
WIRE -64 128 -64 48
WIRE -64 128 -112 128
WIRE 272 128 272 48
WIRE 272 128 224 128
WIRE 592 128 592 48
WIRE 592 128 544 128
WIRE -240 160 -256 160
WIRE -160 160 -240 160
WIRE 96 160 80 160
WIRE 176 160 96 160
WIRE 496 160 400 160
WIRE -112 224 -112 176
WIRE -64 224 -112 224
WIRE 224 224 224 176
WIRE 400 224 400 160
WIRE 400 224 224 224
WIRE 544 224 544 176
WIRE 704 224 544 224
WIRE 800 224 704 224
WIRE -432 240 -432 192
WIRE -112 240 -112 224
WIRE -64 288 -64 224
WIRE -64 288 -112 288
WIRE 224 288 224 224
WIRE 544 288 544 224
WIRE 800 288 800 224
WIRE -256 320 -432 320
WIRE -160 320 -256 320
WIRE 272 336 224 336
WIRE 592 336 544 336
WIRE 800 336 752 336
WIRE -112 368 -112 336
WIRE 176 368 -112 368
WIRE 464 368 448 368
WIRE 496 368 464 368
WIRE 896 368 848 368
WIRE 1024 368 896 368
WIRE 1024 400 1024 368
WIRE 544 416 544 384
WIRE 800 416 800 384
WIRE 800 416 544 416
WIRE -432 432 -432 320
WIRE -112 448 -112 368
WIRE 224 448 224 384
WIRE 544 448 544 416
WIRE -64 496 -112 496
WIRE 272 496 224 496
WIRE 592 496 544 496
WIRE -240 528 -256 528
WIRE -160 528 -240 528
WIRE 96 528 80 528
WIRE 176 528 96 528
WIRE 400 528 400 224
WIRE 496 528 400 528
WIRE 1024 544 1024 480
WIRE -112 560 -112 544
WIRE -64 560 -64 496
WIRE -64 560 -112 560
WIRE 224 560 224 544
WIRE 224 560 -64 560
WIRE 272 560 272 496
WIRE 272 560 224 560
WIRE 544 560 544 544
WIRE 544 560 272 560
WIRE 592 560 592 496
WIRE 592 560 544 560
WIRE -432 576 -432 512
WIRE 224 592 224 560
FLAG 272 336 0
FLAG 592 336 0
FLAG 752 336 0
FLAG 704 224 out
FLAG -240 160 out
FLAG -240 528 out
FLAG 464 368 in
FLAG 896 368 reset
FLAG 224 592 0
FLAG -256 320 in
FLAG -432 576 0
FLAG -432 240 0
FLAG 96 160 in
FLAG 96 528 in
FLAG 1024 544 0
SYMBOL nmos4 176 288 R0
WINDOW 123 56 100 Left 2
SYMATTR Value2 l=0.18u w=0.18u m=34
SYMATTR InstName M1
SYMATTR Value NM
SYMBOL pmos4 -160 80 R0
WINDOW 123 53 96 Left 2
SYMATTR Value2 l=0.18u w=0.18u m=24
SYMATTR InstName M2
SYMATTR Value PM
SYMBOL pmos4 -160 240 R0
WINDOW 123 56 100 Left 2
SYMATTR Value2 l=0.18u w=0.18u m=12
SYMATTR InstName M3
SYMATTR Value PM
SYMBOL nmos4 176 448 R0
WINDOW 123 56 100 Left 2
SYMATTR Value2 l=0.18u w=0.18u m=42
SYMATTR InstName M4
SYMATTR Value NM
SYMBOL pmos4 176 80 R0
WINDOW 123 56 100 Left 2
SYMATTR Value2 l=0.18u w=0.18u m=24
SYMATTR InstName M5
SYMATTR Value PM
SYMBOL nmos4 -160 448 R0
WINDOW 123 58 92 Left 2
SYMATTR Value2 l=0.18u w=0.18u m=5
SYMATTR InstName M6
SYMATTR Value NM
SYMBOL nmos4 496 288 R0
WINDOW 123 -35 -5 Left 2
SYMATTR Value2 l=0.18u w=0.18u m=14
SYMATTR InstName M7
SYMATTR Value NM
SYMBOL nmos4 496 448 R0
WINDOW 123 56 100 Left 2
SYMATTR Value2 l=0.18u w=0.18u m=20
SYMATTR InstName M8
SYMATTR Value NM
SYMBOL pmos4 496 80 R0
WINDOW 123 56 100 Left 2
SYMATTR Value2 l=0.18u w=0.18u m=20
SYMATTR InstName M9
SYMATTR Value PM
SYMBOL nmos4 848 288 M0
WINDOW 0 46 33 Left 2
WINDOW 3 50 64 Left 2
WINDOW 123 -144 1 Left 2
SYMATTR InstName M10
SYMATTR Value NM
SYMATTR Value2 l=0.18u w=0.18u m=5
SYMBOL voltage -432 416 M0
WINDOW 123 0 0 Left 2
WINDOW 39 0 0 Left 2
SYMATTR InstName RF
SYMATTR Value PULSE(0 1.8 20n 0.3n 0.3n 5n 10n)
SYMBOL voltage -432 96 M0
SYMATTR InstName Vdd
SYMATTR Value 1.8V
SYMBOL voltage 1024 384 M0
WINDOW 123 0 0 Left 2
WINDOW 39 0 0 Left 2
SYMATTR InstName rst
SYMATTR Value PULSE(0 1.8 0 0.3n 0.3n 10n 1u 1)
TEXT 832 64 Left 2 !.lib mosfet_018.lib
TEXT 832 104 Left 2 !.tran 100n
